! These parameters are missing from the common MOM_input parameters
#override TS_CONFIG = "SCM_CVmix_tests"
#override SCM_TEMP_MLD = 100.0
#override SCM_L1_SALT = 35.0              !   [1e-3] default = 35.0
#override SCM_L1_TEMP = 15.0              !   [C] default = 20.0
#override SCM_L2_SALT = 35.0              !   [1e-3] default = 35.0
#override SCM_L2_TEMP = 16.0              !   [C] default = 20.0
#override SCM_L1_DTDZ = -0.01
#override SCM_L2_DTDZ = 0.01
BUOY_CONFIG = "const"
WIND_CONFIG = "zero"
GUST_CONST = 0.0
SENSIBLE_HEAT_FLUX = 0.
USE_CVMIX_CONVECTION = True
#override USE_KPP = False
!#override DEBUG = True
